================================
How to Use 5-text_indentation.py
================================

This module defines a function ``text_indentation(text)``.

How to use
==========

Text is printed with two new lines after the following characters ``.``, ``?``,``:``.

::

    >>> text_indentation = __import__('5-text_indentation').text_indentation
    >>> text_indentation("Korir?")
    Korir?
    <BLANKLINE>

spaces are not included at the beginning of a line

::

    >>> text_indentation("  Korir")
    Hi there.
    <BLANKLINE>

::

    >>> text_indentation("    ")

no spaces are printed at the end of a printed line

::

    >>> text_indentation("Hello. ")
    Hello.
    <BLANKLINE>

::

    >>> text_indentation("  Hey there. This is Kelvo.  ")
    Hey there.
    <BLANKLINE>
    This is Kelvo.
    <BLANKLINE>

::

    >>> text_indentation("I am going, to school tomorrow")
    I am going, to school tomorrow

New lines within a string are printed as normal

::

    >>> text_indentation("Let's print a new-line! Here goes:\nPrinted.")
    Lets print a new-line! Here goes:
    <BLANKLINE>
    <BLANKLINE>
    Printed.
    <BLANKLINE>

::

    >>> text_indentation("\n\n\n We just printed three new lines.")
    <BLANKLINE>
    <BLANKLINE>
    <BLANKLINE>
    We just printed three new lines.
    <BLANKLINE>

::
    >>> text_indentation("A sneaky \n new line.")
    A sneaky 
    new line.
    <BLANKLINE>

Example:

::

    >>> text_indentation("Lorem ipsum dolor sit amet, consectetur adipiscing "
    ... "elit. Quonam modo? Utrum igitur tibi litteram videor an totas paginas "
    ... "commovere? Non autem hoc: igitur ne illud quidem. Fortasse id optimum, "
    ... "sed ubi illud: Plus semper voluptatis? Teneo, inquit, finem illi videri "
    ... "nihil dolere. Transfer idem ad modestiam vel temperantiam, quae est "
    ... "moderatio cupiditatum rationi oboediens. Si id dicis, vicimus. Inde "
    ... "sermone vario sex illa a Dipylo stadia confecimus. Sin aliud quid "
    ... "voles, postea. Quae animi affectio suum cuique tribuens atque hanc, "
    ... "quam dico. Utinam quidem dicerent alium alio beatiorem! Iam ruinas "
    ... "videres") # doctest: +NORMALIZE_WHITESPACE
    Lorem ipsum dolor sit amet, consectetur adipiscing elit.
    <BLANKLINE>
    Quonam modo?
    <BLANKLINE>
    Utrum igitur tibi litteram videor an totas paginas commovere?
    <BLANKLINE>
    Non autem hoc:
    <BLANKLINE>
    igitur ne illud quidem.
    <BLANKLINE>
    Fortasse id optimum, sed ubi illud:
    <BLANKLINE>
    Plus semper voluptatis?
    <BLANKLINE>
    Teneo, inquit, finem illi videri nihil dolere.
    <BLANKLINE>
    Transfer idem ad modestiam vel temperantiam, 
    quae est moderatio cupiditatum rationi oboediens.
    <BLANKLINE>
    Si id dicis, vicimus.
    <BLANKLINE>
    Inde sermone vario sex illa a Dipylo stadia confecimus.
    <BLANKLINE>
    Sin aliud quid voles, postea.
    <BLANKLINE>
    Quae animi affectio suum cuique tribuens atque hanc, quam dico.
    <BLANKLINE>
    Utinam quidem dicerent alium alio beatiorem! Iam ruinas videres

Instance Of Invalid Text
========================

paramter ``text`` must be a string

::

    >>> text_indentation(2)
    Traceback (most recent call last):
    TypeError: text must be a string

::

    >>> text_indentation({"five": 5, "eight": 8})
    Traceback (most recent call last):
    TypeError: text must be a string

::

    >>> text_indentation(None)
    Traceback (most recent call last):
    TypeError: text must be a string
